Circuit: * E:\CAD_projects\Triangular_signal.asc

Direct Newton iteration failed to find .op point.  (Use ".option noopiter" to skip.)
Starting Gmin stepping
Gmin = 10
Gmin = 1.07374
vernier = 0.5
vernier = 0.25
Gmin = 0.458335
vernier = 0.333333
vernier = 0.444444
Gmin = 0.203441
vernier = 0.592592
Gmin = 0.0582667
vernier = 0.790123
vernier = 1
Gmin = 0.00809209
Gmin = 0.000868881
Gmin = 9.32954e-005
Gmin = 1.00175e-005
Gmin = 1.07562e-006
Gmin = 1.15494e-007
Gmin = 1.24011e-008
Gmin = 1.33156e-009
Gmin = 1.42975e-010
Gmin = 1.53518e-011
Gmin = 1.64839e-012
Gmin = 1.76994e-013
Gmin = 0
Gmin stepping succeeded in finding the operating point.

.step run=1
.step run=2
.step run=3
.step run=4
.step run=5
.step run=6
.step run=7
.step run=8
.step run=9
.step run=10
.step run=11
.step run=12
.step run=13
.step run=14
.step run=15
.step run=16
.step run=17
.step run=18
.step run=19
.step run=20
.step run=21
.step run=22
.step run=23
.step run=24
.step run=25


Measurement: amplitude_vin
  step	MAX(v(vin))	FROM	TO
     1	2.58201	0	0.003
     2	2.37906	0	0.003
     3	2.12758	0	0.003
     4	2.25193	0	0.003
     5	2.31826	0	0.003
     6	2.21656	0	0.003
     7	2.18643	0	0.003
     8	2.41646	0	0.003
     9	2.5876	0	0.003
    10	2.54054	0	0.003
    11	2.41632	0	0.003
    12	2.5434	0	0.003
    13	2.47974	0	0.003
    14	2.51022	0	0.003
    15	2.16227	0	0.003
    16	2.42737	0	0.003
    17	2.15433	0	0.003
    18	2.4687	0	0.003
    19	2.44167	0	0.003
    20	2.50436	0	0.003
    21	2.29078	0	0.003
    22	2.36177	0	0.003
    23	2.27157	0	0.003
    24	2.4092	0	0.003
    25	2.50593	0	0.003

Measurement: amplitude
  step	MAX(v(out))	FROM	TO
     1	4.97966	0	0.003
     2	4.9485	0	0.003
     3	5.06045	0	0.003
     4	4.98574	0	0.003
     5	5.04318	0	0.003
     6	5.02052	0	0.003
     7	5.01024	0	0.003
     8	5.07627	0	0.003
     9	4.98084	0	0.003
    10	5.02206	0	0.003
    11	5.01703	0	0.003
    12	5.01166	0	0.003
    13	5.06504	0	0.003
    14	5.05678	0	0.003
    15	5.0548	0	0.003
    16	4.97602	0	0.003
    17	4.96657	0	0.003
    18	5.01807	0	0.003
    19	4.99153	0	0.003
    20	4.97668	0	0.003
    21	4.96407	0	0.003
    22	4.99487	0	0.003
    23	4.97531	0	0.003
    24	4.99166	0	0.003
    25	5.03834	0	0.003

Measurement: t1
  step	v(out)=0
     1	0.000837231
     2	0.00013174
     3	0.000776103
     4	0.000853582
     5	9.96058e-005
     6	0.00083463
     7	0.000861861
     8	0.000135269
     9	9.56689e-005
    10	0.000150502
    11	0.000104548
    12	0.000873569
    13	0.000131513
    14	9.79947e-005
    15	0.000785798
    16	0.000896076
    17	0.000750306
    18	0.000767036
    19	0.000106806
    20	0.000778335
    21	0.00073293
    22	0.000720568
    23	9.64184e-005
    24	0.000697566
    25	0.000789145

Measurement: t2
  step	v(out)=0
     1	0.000843712
     2	0.000140255
     3	0.000789026
     4	0.000865374
     5	0.000109654
     6	0.000846394
     7	0.000873502
     8	0.000143619
     9	0.000101543
    10	0.000157678
    11	0.000113553
    12	0.000880947
    13	0.000138529
    14	0.000105148
    15	0.000798476
    16	0.000904693
    17	0.000762331
    18	0.000774451
    19	0.000115601
    20	0.000785853
    21	0.000742604
    22	0.000729308
    23	0.000106521
    24	0.000705655
    25	0.000796444

Measurement: freq
  step	1/(t3-t1)
     1	11241.8
     2	12921.2
     3	11618.8
     4	10883.7
     5	12013.6
     6	11647.9
     7	12165.1
     8	12601.8
     9	12967.1
    10	11399.8
    11	11521.1
    12	10874.9
    13	13017.3
    14	12395.1
    15	11212.8
    16	11486.4
    17	12194.1
    18	12544.4
    19	11313.3
    20	11852.1
    21	12975.5
    22	12956.7
    23	12393.7
    24	12943.7
    25	12188.7

Measurement: t3
  step	v(out)=0
     1	0.000926184
     2	0.000209132
     3	0.000862171
     4	0.000945463
     5	0.000182845
     6	0.000920483
     7	0.000944064
     8	0.000214622
     9	0.000172787
    10	0.000238223
    11	0.000191345
    12	0.000965524
    13	0.000208334
    14	0.000178671
    15	0.000874981
    16	0.000983136
    17	0.000832312
    18	0.000846753
    19	0.000195198
    20	0.000862708
    21	0.000809998
    22	0.000797749
    23	0.000177105
    24	0.000774823
    25	0.000871188

Measurement: amplvtriang
  step	MAX(v(vtriang))	FROM	TO
     1	3.01278	0	0.003
     2	3.03612	0	0.003
     3	3.02816	0	0.003
     4	3.01741	0	0.003
     5	3.04429	0	0.003
     6	3.04071	0	0.003
     7	3.03807	0	0.003
     8	3.04757	0	0.003
     9	3.03975	0	0.003
    10	3.02539	0	0.003
    11	3.03713	0	0.003
    12	3.01857	0	0.003
    13	3.01987	0	0.003
    14	3.0373	0	0.003
    15	3.0094	0	0.003
    16	3.01524	0	0.003
    17	3.03701	0	0.003
    18	3.01909	0	0.003
    19	3.03644	0	0.003
    20	3.03519	0	0.003
    21	3.04675	0	0.003
    22	3.04163	0	0.003
    23	3.02106	0	0.003
    24	3.03333	0	0.003
    25	3.03539	0	0.003

Measurement: dutycycle
  step	(t2-t1)/(t3-t1)*100
     1	7.28619
     2	11.0026
     3	15.0147
     4	12.8334
     5	12.0718
     6	13.7022
     7	14.1605
     8	10.523
     9	7.61762
    10	8.18055
    11	10.3752
    12	8.02333
    13	9.13241
    14	8.86709
    15	14.216
    16	9.89731
    17	14.6631
    18	9.30119
    19	9.94969
    20	8.91091
    21	12.5533
    22	11.3232
    23	12.5211
    24	10.4702
    25	8.89681


Date: Sat May 14 19:23:21 2022
Total elapsed time: 119.502 seconds.

tnom = 27
temp = 27
method = modified trap
totiter = 121497
traniter = 120389
tranpoints = 38314
accept = 27188
rejected = 11126
matrix size = 159
fillins = 307
solver = Normal
Matrix Compiler1: 25.01 KB object code size  5.8/2.9/[1.2]
Matrix Compiler2: 18.06 KB object code size  3.2/3.9/[1.1]

